LTspice 24.0.9 for Windows
Circuit: * D:\#Engenharia_eletronica\#UFPE\2024-1_-_Engenharia_Eletronica\EL216 - CIRCUITOS ELETRICOS 2A - 90h\Praticas_circuitos2\04\ltspice\circuito_ii_pratica_4 .asc
Start Time: Sun Jun 16 14:35:26 2024
solver = Normal
Maximum thread count: 12
tnom = 27
temp = 27
method = modified trap
.OP point found by inspection.
Total elapsed time: 0.086 seconds.

