LTspice 24.0.9 for Windows
Circuit: * D:\#Engenharia_eletronica\#UFPE\2024-1_-_Engenharia_Eletronica\EL216 - CIRCUITOS ELETRICOS 2A - 90h\Praticas_circuitos2\04\ltspice\testecircuito_iii_pratica_3.asc
Start Time: Tue Jun 18 18:56:05 2024
solver = Normal
Maximum thread count: 12
tnom = 27
temp = 27
method = modified trap
Direct Newton iteration for .op point succeeded.
Total elapsed time: 0.068 seconds.

