LTspice 24.0.9 for Windows
Circuit: * D:\#Engenharia_eletronica\#UFPE\2024-1_-_Engenharia_Eletronica\EL216 - CIRCUITOS ELETRICOS 2A - 90h\Praticas_circuitos2\02\circuito_pratica_2.asc
Start Time: Tue May 14 16:53:45 2024
solver = Normal
Maximum thread count: 12
tnom = 27
temp = 27
method = modified trap
Direct Newton iteration for .op point succeeded.
Total elapsed time: 0.156 seconds.

