LTspice 24.0.9 for Windows
Circuit: * D:\#Engenharia_eletronica\#UFPE\2024-1_-_Engenharia_Eletronica\EL216 - CIRCUITOS ELETRICOS 2A - 90h\Praticas_circuitos2\03\LTSpice\circuito_ii_pratica_3 - Copia.asc
Start Time: Wed Jun 19 10:11:37 2024
solver = Normal
Maximum thread count: 12
tnom = 27
temp = 27
method = modified trap
Limiting rise time of source v2 to 0.1
Limiting fall time of source v2 to 0.1
Direct Newton iteration for .op point succeeded.
Total elapsed time: 0.077 seconds.

