LTspice 24.0.9 for Windows
Circuit: * D:\#Engenharia_eletronica\#UFPE\2024-1_-_Engenharia_Eletronica\EL216 - CIRCUITOS ELETRICOS 2A - 90h\Praticas_circuitos2\01\Circuito_pratica1.asc
Start Time: Wed Jun 19 07:27:08 2024
solver = Normal
Maximum thread count: 12
tnom = 27
temp = 27
method = modified trap
Limiting rise time of source v2 to 5e-06
Limiting fall time of source v2 to 5e-06
Direct Newton iteration for .op point succeeded.
Total elapsed time: 1.129 seconds.

